/*--------------------------------*- C++ -*----------------------------------*\
  =========                 |
  \\      /  F ield         | OpenFOAM: The Open Source CFD Toolbox
   \\    /   O peration     | Website:  https://openfoam.org
    \\  /    A nd           | Version:  6
     \\/     M anipulation  |
\*---------------------------------------------------------------------------*/
FoamFile
{
    version     2.0;
    format      ascii;
    class       polyBoundaryMesh;
    location    "constant/polyMesh";
    object      boundary;
}
// * * * * * * * * * * * * * * * * * * * * * * * * * * * * * * * * * * * * * //

5
(
    wall
    {
        type            empty;
        inGroups        1(empty);
        nFaces          131072;
        startFace       130560;
    }
    top
    {
        type            patch;
        nFaces          256;
        startFace       261632;
    }
    bottom
    {
        type            patch;
        nFaces          256;
        startFace       261888;
    }
    inlet
    {
        type            patch;
        nFaces          256;
        startFace       262144;
    }
    outlet
    {
        type            patch;
        nFaces          256;
        startFace       262400;
    }
)

// ************************************************************************* //
