/*--------------------------------*- C++ -*----------------------------------*\
  =========                 |
  \\      /  F ield         | OpenFOAM: The Open Source CFD Toolbox
   \\    /   O peration     | Website:  https://openfoam.org
    \\  /    A nd           | Version:  6
     \\/     M anipulation  |
\*---------------------------------------------------------------------------*/
FoamFile
{
    version     2.0;
    format      ascii;
    class       polyBoundaryMesh;
    location    "constant/polyMesh";
    object      boundary;
}
// * * * * * * * * * * * * * * * * * * * * * * * * * * * * * * * * * * * * * //

4
(
    fuel
    {
        type            patch;
        nFaces          300;
        startFace       239300;
    }
    air
    {
        type            patch;
        nFaces          300;
        startFace       239600;
    }
    outlet
    {
        type            patch;
        nFaces          800;
        startFace       239900;
    }
    frontAndBack
    {
        type            empty;
        inGroups        1(empty);
        nFaces          240000;
        startFace       240700;
    }
)

// ************************************************************************* //
