/*--------------------------------*- C++ -*----------------------------------*\
  =========                 |
  \\      /  F ield         | OpenFOAM: The Open Source CFD Toolbox
   \\    /   O peration     | Website:  https://openfoam.org
    \\  /    A nd           | Version:  6
     \\/     M anipulation  |
\*---------------------------------------------------------------------------*/
FoamFile
{
    version     2.0;
    format      ascii;
    class       volScalarField;
    location    "0.00015";
    object      N2;
}
// * * * * * * * * * * * * * * * * * * * * * * * * * * * * * * * * * * * * * //

dimensions      [0 0 0 0 0 0 0];

internalField   #codeStream
{
    
        codeInclude
        #{
            #include "fvCFD.H"
        #};
        codeOptions
        #{
            -I$(LIB_SRC)/finiteVolume/lnInclude \
            -I$(LIB_SRC)/meshTools/lnInclude
        #};  
        codeLibs
        #{
            -lmeshTools \
            -lfiniteVolume
        #};
        code
        #{
            const IOdictionary & d = static_cast<const IOdictionary&>(dict);
            const fvMesh& mesh = refCast<const fvMesh>(d.db());

            double r = 0.5e-3;
            double x_center = 2e-3;
            double y_center = 2e-3;
            double thickness = 20e-5;
            double omega=4e-5;
            double Nlow=0.001;
            double Nhigh=0.765;

            scalarField N2(mesh.nCells(), Nhigh);
            forAll(N2, i)
            {
                const scalar x = mesh.C()[i][0];
                const scalar y = mesh.C()[i][1];
                //const scalar z = mesh.C()[i][2];
                scalar r_tmp=sqrt(sqr(y - y_center)+sqr(x-x_center));
                if (r_tmp < r-thickness/2)
                {
                    N2[i] = Nlow;
                }
                else if (r_tmp < r+thickness/2)
                {
                    N2[i] =0.5*(Nlow+Nhigh)+0.5*(-Nlow+Nhigh)*tanh((r_tmp-r)*5/omega);
                }
            }
            N2.writeEntry( "", os);
        #};
};
boundaryField
{
    wall
    {
        type            empty;
    }
    top
    {
        type            zeroGradient;
        //type            waveTransmissiveDF;
    }
    bottom
    {
        type            zeroGradient;
        //type            waveTransmissiveDF;
    }
    inlet
    {
        //type            zeroGradient;
        type            waveTransmissiveDF;
    }
    outlet
    {
        //type            zeroGradient;
        type            waveTransmissiveDF;
    }
}


// ************************************************************************* //
