/*--------------------------------*- C++ -*----------------------------------*\
  =========                 |
  \\      /  F ield         | OpenFOAM: The Open Source CFD Toolbox
   \\    /   O peration     | Website:  https://openfoam.org
    \\  /    A nd           | Version:  6
     \\/     M anipulation  |
\*---------------------------------------------------------------------------*/
FoamFile
{
    version     2.0;
    format      ascii;
    class       volScalarField;
    location    "0.00015";
    object      O2;
}
// * * * * * * * * * * * * * * * * * * * * * * * * * * * * * * * * * * * * * //

dimensions      [0 0 0 0 0 0 0];

internalField   #codeStream
{
    
        codeInclude
        #{
            #include "fvCFD.H"
        #};
        codeOptions
        #{
            -I$(LIB_SRC)/finiteVolume/lnInclude \
            -I$(LIB_SRC)/meshTools/lnInclude
        #};  
        codeLibs
        #{
            -lmeshTools \
            -lfiniteVolume
        #};
        code
        #{
            const IOdictionary & d = static_cast<const IOdictionary&>(dict);
            const fvMesh& mesh = refCast<const fvMesh>(d.db());

            double r = 5e-6;
            double x_center = 50e-6;
            double y_center = 50e-6;
            double thickness = 10e-6/15;
            double omega = 0.01*10e-6;
            double Olow=0.00023;
            double Ohigh=0.22977;

            scalarField O2(mesh.nCells(), Ohigh);
            forAll(O2, i)
            {
                const scalar x = mesh.C()[i][0];
                const scalar y = mesh.C()[i][1];
                //const scalar z = mesh.C()[i][2];
                scalar r_tmp=sqrt(sqr(y - y_center)+sqr(x-x_center));
                if (r_tmp < r-thickness/2)
                {
                    O2[i] = Olow;
                }
                else if (r_tmp < r+thickness/2)
                {
                    O2[i] =0.5*(Olow+Ohigh)+0.5*(-Olow+Ohigh)*tanh((r_tmp-r)/omega);
                }
            }
            O2.writeEntry( "", os);
        #};
};
boundaryField
{
    wall
    {
        type            empty;
    }
    top
    {
        type            fixedValue;
        value           0.22977;
    }
    bottom
    {
        type            fixedValue;
        value           0.22977;
    }
    inlet
    {
        type            fixedValue;
        value           0.22977;
    }
    outlet
    {
        type            fixedValue;
        value           0.22977;
    }
}


// ************************************************************************* //
