/*--------------------------------*- C++ -*----------------------------------*\
  =========                 |
  \\      /  F ield         | OpenFOAM: The Open Source CFD Toolbox
   \\    /   O peration     | Website:  https://openfoam.org
    \\  /    A nd           | Version:  6
     \\/     M anipulation  |
\*---------------------------------------------------------------------------*/
FoamFile
{
    version     2.0;
    format      ascii;
    class       volScalarField;
    location    "0.00011";
    object      H2O;
}
// * * * * * * * * * * * * * * * * * * * * * * * * * * * * * * * * * * * * * //

dimensions      [0 0 0 0 0 0 0];

internalField   #codeStream
{
    
        codeInclude
        #{
            #include "fvCFD.H"
        #};
        codeOptions
        #{
            -I$(LIB_SRC)/finiteVolume/lnInclude \
            -I$(LIB_SRC)/meshTools/lnInclude
        #};  
        codeLibs
        #{
            -lmeshTools \
            -lfiniteVolume
        #};
        code
        #{
            const IOdictionary & d = static_cast<const IOdictionary&>(dict);
            const fvMesh& mesh = refCast<const fvMesh>(d.db());

            double r = 0.125;
            double x_center = 0.5;
            double y_center = 0.5;
            double z_center = 0.5;
            double thickness = 1.0/15;
            double omega=0.01;
            double Hlow=0.0001;
            double Hhigh=0.05;

            scalarField H2O(mesh.nCells(), Hhigh);
            forAll(H2O, i)
            {
                const scalar x = mesh.C()[i][0];
                const scalar y = mesh.C()[i][1];
                //const scalar z = mesh.C()[i][2];
                scalar r_tmp=sqrt(sqr(y - y_center)+sqr(x-x_center)+sqr(z-z_center));
                if (r_tmp < r-thickness/2)
                {
                    H2O[i] = Hlow;
                }
                else if (r_tmp < r+thickness/2)
                {
                    H2O[i] =0.5*(Hlow+Hhigh)+0.5*(-Hlow+Hhigh)*tanh((r_tmp-r)/omega);
                }
            }
            H2O.writeEntry( "", os);
        #};
};

boundaryField
{
    left
    {
        type            cyclic;
    }
    right
    {
        type            cyclic;
    }
    top
    {
        type            cyclic;
    }
    bottom
    {
        type            cyclic;
    }
    inlet
    {
        type            zeroGradient;
    }
    outlet
    {
        type            zeroGradient;
    }
}


// ************************************************************************* //
