/*--------------------------------*- C++ -*----------------------------------*\
  =========                 |
  \\      /  F ield         | OpenFOAM: The Open Source CFD Toolbox
   \\    /   O peration     | Website:  https://openfoam.org
    \\  /    A nd           | Version:  6
     \\/     M anipulation  |
\*---------------------------------------------------------------------------*/
FoamFile
{
    version     2.0;
    format      ascii;
    class       dictionary;
    object      blockMeshDict;
}
// * * * * * * * * * * * * * * * * * * * * * * * * * * * * * * * * * * * * * //

convertToMeters 10e-6;

vertices
(
    (0 0 0)
    (10 0 0)
    (10 10 0)
    (0 10 0)
    (0 0 10)
    (10 0 10)
    (10 10 10)
    (0 10 10)
    
);

blocks
(
    hex (0 1 2 3 4 5 6 7) (128 128 1) simpleGrading (1 1 1) //block 1
);

edges
(
);

boundary
(
    front
    {
        type empty;
        faces
        (

            (0 3 2 1)
        );
    }
    back
    {
        type empty;
        faces
        (
            (5 6 7 4)

        );
    }
    top
    {
        type patch;
        faces
        (
            (3 7 6 2)
        );
    }
    bottom
    {
        type patch;
        faces
        (
            (0 1 5 4)
        );
    }
    inlet
    {
        type            patch;//cyclic;
        //neighbourPatch  outlet;
        faces           ((0 4 7 3));
    }
    outlet
    {
        type            patch;//cyclic;
        //neighbourPatch  inlet;
        faces           ((1 2 6 5));
    }  
);


mergePatchPairs
(
);

// ************************************************************************* //
